*SRC=BC857C;DI_BC857C;BJTs PNP; Si;  45.0V  0.100A  250MHz   Diodes Inc. BJTs
.MODEL DI_BC857C  PNP (IS=10.2f NF=1.00 BF=1.09k VAF=121
+ IKF=36.4m ISE=1.24p NE=2.00 BR=4.00 NR=1.00
+ VAR=20.0 IKR=90.0m RE=0.715 RB=2.86 RC=0.286
+ XTB=1.5 CJE=13.3p VJE=1.10 MJE=0.500 CJC=7.80p VJC=0.300
+ MJC=0.300 TF=587p TR=95.0n EG=1.12 )