* LED: CHIPLED 0603 LB Q39E
* (c) 2020, OSRAM Opto Semiconductors GmbH. All rights reserved.

* LB Q39E
* Valid for Vf(binning) = 2.85 V and If(binnning) = 5.00 mA
* VERSION: 6
.MODEL LB_Q39E_typ D
+ IS=1.357522101222778e-21
+ N=2.542008063039495
+ RS=11.88192287506265
+ Tnom=25
+ EG=3.538026154905024
+ XTI=1.0000000000000100
+ TRS1=-0.005569180957709373
+ TRS2=0.0001424710630565167
+ mfg=OSRAM_OS

* LB Q39E
* Valid for bin '3Y' with Vf(binning) = 2.80 V and If(binning) = 5.00 mA
* VERSION: 6
.MODEL LB_Q39E_3Y-max D
+ IS=1.357522101223622e-21
+ N=2.542008063039533
+ RS=1.589304340571876
+ Tnom=25
+ EG=3.53802610759429
+ XTI=1.0000000000000000
+ TRS1=-0.04163619517906838
+ TRS2=0.001065139041100455
+ mfg=OSRAM_OS

* LB Q39E
* Valid for bin '3Z' with Vf(binning) = 2.80 V and If(binning) = 5.00 mA
* VERSION: 6
.MODEL LB_Q39E_3Z-min D
+ IS=1.357522101223622e-21
+ N=2.542008063039533
+ RS=1.589304340571876
+ Tnom=25
+ EG=3.53802610759429
+ XTI=1.0000000000000000
+ TRS1=-0.04163619517906838
+ TRS2=0.001065139041100455
+ mfg=OSRAM_OS

* LB Q39E
* Valid for bin '3Z' with Vf(binning) = 2.85 V and If(binning) = 5.00 mA
* VERSION: 6
.MODEL LB_Q39E_3Z-mid D
+ IS=1.357522101221834e-21
+ N=2.542008063039453
+ RS=11.58930434057215
+ Tnom=25
+ EG=3.538026087368842
+ XTI=1.0000000000000000
+ TRS1=-0.005709798993265799
+ TRS2=0.0001460683200548263
+ mfg=OSRAM_OS

* LB Q39E
* Valid for bin '3Z' with Vf(binning) = 2.90 V and If(binning) = 5.00 mA
* VERSION: 6
.MODEL LB_Q39E_3Z-max D
+ IS=1.357522101223344e-21
+ N=2.542008063039521
+ RS=21.58930434057185
+ Tnom=25
+ EG=3.538026060480869
+ XTI=1.0000000000000000
+ TRS1=-0.00306506464601241
+ TRS2=7.841059617802276e-05
+ mfg=OSRAM_OS

* LB Q39E
* Valid for bin '4X' with Vf(binning) = 2.90 V and If(binning) = 5.00 mA
* VERSION: 6
.MODEL LB_Q39E_4X-min D
+ IS=1.357522101223344e-21
+ N=2.542008063039521
+ RS=21.58930434057185
+ Tnom=25
+ EG=3.538026060480869
+ XTI=1.0000000000000000
+ TRS1=-0.00306506464601241
+ TRS2=7.841059617802276e-05
+ mfg=OSRAM_OS

* LB Q39E
* Valid for bin '4X' with Vf(binning) = 2.95 V and If(binning) = 5.00 mA
* VERSION: 6
.MODEL LB_Q39E_4X-mid D
+ IS=1.357522101222467e-21
+ N=2.542008063039482
+ RS=31.58930434057197
+ Tnom=25
+ EG=3.538026116211595
+ XTI=1.0000000000000098
+ TRS1=-0.002094778408208046
+ TRS2=5.358871570054602e-05
+ mfg=OSRAM_OS

* LB Q39E
* Valid for bin '4X' with Vf(binning) = 3.00 V and If(binning) = 5.00 mA
* VERSION: 6
.MODEL LB_Q39E_4X-max D
+ IS=1.357522101222811e-21
+ N=2.542008063039495
+ RS=41.58930434057216
+ Tnom=25
+ EG=3.538026138298724
+ XTI=1.0000000000000000
+ TRS1=-0.001591095918798083
+ TRS2=4.070349983184321e-05
+ mfg=OSRAM_OS

* LB Q39E
* Valid for bin '4Y' with Vf(binning) = 3.00 V and If(binning) = 5.00 mA
* VERSION: 6
.MODEL LB_Q39E_4Y-min D
+ IS=1.357522101222811e-21
+ N=2.542008063039495
+ RS=41.58930434057216
+ Tnom=25
+ EG=3.538026138298724
+ XTI=1.0000000000000000
+ TRS1=-0.001591095918798083
+ TRS2=4.070349983184321e-05
+ mfg=OSRAM_OS

* LB Q39E
* Valid for bin '4Y' with Vf(binning) = 3.05 V and If(binning) = 5.00 mA
* VERSION: 6
.MODEL LB_Q39E_4Y-mid D
+ IS=1.357522101223188e-21
+ N=2.542008063039512
+ RS=51.58930434057205
+ Tnom=25
+ EG=3.538026086420976
+ XTI=1.0000000000000000
+ TRS1=-0.001282680752580009
+ TRS2=3.281358931422399e-05
+ mfg=OSRAM_OS

* LB Q39E
* Valid for bin '4Y' with Vf(binning) = 3.10 V and If(binning) = 5.00 mA
* VERSION: 6
.MODEL LB_Q39E_4Y-max D
+ IS=1.357522101223033e-21
+ N=2.542008063039505
+ RS=61.58930434057214
+ Tnom=25
+ EG=3.53802610680903
+ XTI=1.0000000000000011
+ TRS1=-0.001074416999656391
+ TRS2=2.74857813923198e-05
+ mfg=OSRAM_OS

